Version 4.1
SHEET 1 1024 680
WIRE 256 16 192 16
WIRE 192 128 192 16
WIRE 160 144 16 144
WIRE 400 160 224 160
WIRE 160 176 80 176
WIRE 400 176 400 160
WIRE 80 192 80 176
WIRE 192 208 192 192
WIRE 288 208 192 208
WIRE 400 304 400 240
WIRE 512 304 400 304
WIRE 16 320 16 144
WIRE 400 320 400 304
WIRE 400 320 16 320
FLAG 80 272 0
FLAG 16 400 0
FLAG 80 176 Vin
FLAG 256 96 0
FLAG 288 288 0
FLAG 512 304 Vout
SYMBOL diode 384 176 R0
SYMATTR InstName D1
SYMATTR Value 1N4148
SYMBOL res 0 304 R0
SYMATTR InstName R1
SYMATTR Value 10k
SYMBOL voltage 80 176 R0
WINDOW 123 0 0 Left 0
WINDOW 39 0 0 Left 0
SYMATTR InstName V1
SYMATTR Value SINE(0 2 100)
SYMBOL voltage 256 0 R0
WINDOW 123 0 0 Left 0
WINDOW 39 0 0 Left 0
SYMATTR InstName V2
SYMATTR Value 15
SYMBOL voltage 288 192 R0
WINDOW 123 0 0 Left 0
WINDOW 39 0 0 Left 0
SYMATTR InstName V3
SYMATTR Value -15
SYMBOL OpAmps\\AD795 928 64 R0
SYMATTR InstName U2
SYMBOL LM741 192 96 R0
SYMATTR InstName U1
TEXT 272 392 Left 2 !.tran 50m
