Version 4.1
SHEET 1 1016 680
WIRE 432 -192 224 -192
WIRE 368 -176 272 -176
WIRE 432 -160 432 -192
WIRE -32 -128 -96 -128
WIRE -96 -112 -96 -128
WIRE 272 -80 272 -176
WIRE -32 -64 -32 -128
WIRE 32 -64 -32 -64
WIRE 224 -64 224 -192
WIRE 224 -64 112 -64
WIRE 240 -64 224 -64
WIRE 432 -48 432 -96
WIRE 432 -48 304 -48
WIRE 240 -32 192 -32
WIRE 32 16 -64 16
WIRE -64 48 -64 16
WIRE 272 48 272 -16
WIRE 32 144 32 16
WIRE 192 192 192 -32
WIRE 192 192 80 192
WIRE 32 272 32 224
FLAG -64 128 0
FLAG 32 272 0
FLAG -96 -32 0
FLAG 272 128 0
FLAG 368 -96 0
FLAG -96 -128 Vin
FLAG 432 -192 Vout
SYMBOL voltage -64 32 R0
WINDOW 123 0 0 Left 0
WINDOW 39 0 0 Left 0
SYMATTR InstName V1
SYMATTR Value 15
SYMBOL LM741 272 -112 R0
SYMATTR InstName U2
SYMBOL diode 416 -160 R0
SYMATTR InstName D1
SYMBOL res 128 -80 R90
WINDOW 0 0 56 VBottom 2
WINDOW 3 32 56 VTop 2
SYMATTR InstName R1
SYMATTR Value 3.3k
SYMBOL voltage -96 -128 R0
WINDOW 3 -189 55 Left 2
WINDOW 123 0 0 Left 0
WINDOW 39 0 0 Left 0
SYMATTR Value SINE(0 7 1k)
SYMATTR InstName V2
SYMBOL voltage 272 32 R0
WINDOW 123 0 0 Left 0
WINDOW 39 0 0 Left 0
SYMATTR InstName V3
SYMATTR Value -15
SYMBOL voltage 368 -192 R0
WINDOW 123 0 0 Left 0
WINDOW 39 0 0 Left 0
SYMATTR InstName V4
SYMATTR Value 15
SYMBOL pot 16 128 R0
SYMATTR InstName U3
SYMATTR Value Rtot=100k wiper=.1
TEXT -280 296 Left 2 !.tran 50m
TEXT -168 200 Left 2 !.include pot.sub
